tests/data/upgrade-models/K1/Substation.dss



New Transformer.T2 phases=3 windings=2 buses=(Trans_equiv.1.2.3, K_LSB.1.2.3) conns=(delta,wye) kvs=(66, 13.8) kvas=(12000, 12000)
~ xhl=7.904196143 wdg=1 %r=0.250041667 wdg=2 %r=0.250041667 mintap=0.9 maxtap=1.1

!New reactor.T2_neutral bus1=K_LSB.3 bus2=K_LSB.0 phases=1 x=0.5 basefreq=60
 
New line.K21_feeder bus1=K_LSB.1.2.3.0 bus2=K21.1.2.3.0 phases=3 switch=y length=0.001 units=ft enabled=true
New line.K22_feeder bus1=K_LSB bus2=K22 phases=3 switch=y length=0.001 units=ft enabled=true

New regcontrol.T2 transformer=T2 vreg=(122) winding=2 band=3 ptratio=63.50852961 delay=30


