tests/data/upgrade-models/K1/services.dss
New line.res_srv_10559391-S-A bus1=sec_10559391.1 bus2=ld_10559391.1 linecode=1/0_TRIPLEX_1PH phases=1 length=100 units=ft
New line.res_srv_10558483-S-B bus1=sec_10558483.2 bus2=ld_10558483.2 linecode=1/0_TRIPLEX_1PH phases=1 length=100 units=ft
New line.res_srv_34092313-S-C bus1=sec_34092313.3 bus2=ld_34092313.3 linecode=1/0_TRIPLEX_1PH phases=1 length=100 units=ft
New line.res_srv_34085491-S-B bus1=sec_34085491.2 bus2=ld_34085491.2 linecode=1/0_TRIPLEX_1PH phases=1 length=100 units=ft
New line.res_srv_34054972-S-C bus1=sec_34054972.3 bus2=ld_34054972.3 linecode=1/0_TRIPLEX_1PH phases=1 length=100 units=ft
New line.res_srv_10559275-S-A bus1=sec_10559275.1 bus2=ld_10559275.1 linecode=1/0_TRIPLEX_1PH phases=1 length=100 units=ft
New line.res_srv_34085468-S-C bus1=sec_34085468.3 bus2=ld_34085468.3 linecode=1/0_TRIPLEX_1PH phases=1 length=100 units=ft
New line.res_srv_10549020-S-C bus1=sec_10549020.3 bus2=ld_10549020.3 linecode=1/0_TRIPLEX_1PH phases=1 length=100 units=ft
New line.res_srv_10548907-S-B bus1=sec_10548907.2 bus2=ld_10548907.2 linecode=1/0_TRIPLEX_1PH phases=1 length=100 units=ft
New line.res_srv_10555985-S-C bus1=sec_10555985.3 bus2=ld_10555985.3 linecode=1/0_TRIPLEX_1PH phases=1 length=100 units=ft
New line.res_srv_10548988-S-B bus1=sec_10548988.2 bus2=ld_10548988.2 linecode=1/0_TRIPLEX_1PH phases=1 length=100 units=ft
New line.res_srv_10543795-S-C bus1=sec_10543795.3 bus2=ld_10543795.3 linecode=1/0_TRIPLEX_1PH phases=1 length=100 units=ft
New line.res_srv_34086801-S-C bus1=sec_34086801.3 bus2=ld_34086801.3 linecode=1/0_TRIPLEX_1PH phases=1 length=100 units=ft
New line.res_srv_34085286-S-B bus1=sec_34085286.2 bus2=ld_34085286.2 linecode=1/0_TRIPLEX_1PH phases=1 length=100 units=ft
New line.res_srv_10574854-S-C bus1=sec_10574854.3 bus2=ld_10574854.3 linecode=1/0_TRIPLEX_1PH phases=1 length=100 units=ft
New line.res_srv_10548982-S-A bus1=sec_10548982.1 bus2=ld_10548982.1 linecode=1/0_TRIPLEX_1PH phases=1 length=100 units=ft
New line.res_srv_34086794-S-B bus1=sec_34086794.2 bus2=ld_34086794.2 linecode=1/0_TRIPLEX_1PH phases=1 length=100 units=ft
New line.res_srv_34085048-S-C bus1=sec_34085048.3 bus2=ld_34085048.3 linecode=1/0_TRIPLEX_1PH phases=1 length=100 units=ft
New line.res_srv_20350796-S-B bus1=sec_20350796.2 bus2=ld_20350796.2 linecode=1/0_TRIPLEX_1PH phases=1 length=100 units=ft
New line.res_srv_10548968-S-A bus1=sec_10548968.1 bus2=ld_10548968.1 linecode=1/0_TRIPLEX_1PH phases=1 length=100 units=ft
New line.res_srv_10532911-S-C bus1=sec_10532911.3 bus2=ld_10532911.3 linecode=1/0_TRIPLEX_1PH phases=1 length=100 units=ft
New line.res_srv_34097398-S-C bus1=sec_34097398.3 bus2=ld_34097398.3 linecode=1/0_TRIPLEX_1PH phases=1 length=100 units=ft
New line.res_srv_34085042-S-A bus1=sec_34085042.1 bus2=ld_34085042.1 linecode=1/0_TRIPLEX_1PH phases=1 length=100 units=ft
New line.res_srv_20344333-S-A bus1=sec_20344333.1 bus2=ld_20344333.1 linecode=1/0_TRIPLEX_1PH phases=1 length=100 units=ft
New line.res_srv_10560618-S-C bus1=sec_10560618.3 bus2=ld_10560618.3 linecode=1/0_TRIPLEX_1PH phases=1 length=100 units=ft
New line.res_srv_10549285-S-B bus1=sec_10549285.2 bus2=ld_10549285.2 linecode=1/0_TRIPLEX_1PH phases=1 length=100 units=ft


New line.com_srv_10526890-S-A bus1=sec_10526890.1.2.3 bus2=ld_10526890.1.2.3 linecode=1/0_TRIPLEX_3PH phases=3 length=100 units=ft
New line.res_srv_34097392-S-C bus1=sec_34097392.3 bus2=ld_34097392.3 linecode=1/0_TRIPLEX_1PH phases=1 length=100 units=ft
New line.res_srv_34085036-S-A bus1=sec_34085036.1 bus2=ld_34085036.1 linecode=1/0_TRIPLEX_1PH phases=1 length=100 units=ft
New line.res_srv_20251419-S-C bus1=sec_20251419.3 bus2=ld_20251419.3 linecode=1/0_TRIPLEX_1PH phases=1 length=100 units=ft
New line.res_srv_10560337-S-B bus1=sec_10560337.2 bus2=ld_10560337.2 linecode=1/0_TRIPLEX_1PH phases=1 length=100 units=ft
New line.res_srv_10558551-S-A bus1=sec_10558551.1 bus2=ld_10558551.1 linecode=1/0_TRIPLEX_1PH phases=1 length=100 units=ft
New line.res_srv_10524061-S-C bus1=sec_10524061.3 bus2=ld_10524061.3 linecode=1/0_TRIPLEX_1PH phases=1 length=100 units=ft
New line.res_srv_34096115-S-B bus1=sec_34096115.2 bus2=ld_34096115.2 linecode=1/0_TRIPLEX_1PH phases=1 length=100 units=ft
New line.res_srv_34086318-S-B bus1=sec_34086318.2 bus2=ld_34086318.2 linecode=1/0_TRIPLEX_1PH phases=1 length=100 units=ft
New line.res_srv_34084954-S-B bus1=sec_34084954.2 bus2=ld_34084954.2 linecode=1/0_TRIPLEX_1PH phases=1 length=100 units=ft
New line.res_srv_10558545-S-B bus1=sec_10558545.2 bus2=ld_10558545.2 linecode=1/0_TRIPLEX_1PH phases=1 length=100 units=ft
New line.res_srv_10549263-S-A bus1=sec_10549263.1 bus2=ld_10549263.1 linecode=1/0_TRIPLEX_1PH phases=1 length=100 units=ft
New line.res_srv_34095665-S-B bus1=sec_34095665.2 bus2=ld_34095665.2 linecode=1/0_TRIPLEX_1PH phases=1 length=100 units=ft
New line.res_srv_34086306-S-A bus1=sec_34086306.1 bus2=ld_34086306.1 linecode=1/0_TRIPLEX_1PH phases=1 length=100 units=ft
...